64
Generated from the PW2PY python module
    C           1.487139704      -0.398508412      -2.249810563
    C           0.376804988      -1.406017179      -4.258022898
    C           2.053124978       2.052973629      -2.199696892
    C          -2.804421074       0.751506358      -2.199803571
    C           0.751453757      -2.804515653      -2.199700448
    C           0.640453052       2.418013282      -0.144982621
    C          -0.654460804      -2.414259320      -0.144986159
    C          -1.763574282       1.773909686      -0.145035417
    C           1.773840941      -1.763651954      -0.144932830
    C           2.418045475       0.640347284      -0.144931070
    C          -2.414283603      -0.654363680      -0.145037195
    C           0.367971007      -1.373435349       0.395616702
    C          -1.373432181       0.368039917       0.395566200
    C           1.005432819       1.005401849       0.395618444
    C          -0.377547946       1.409459925      -3.737621080
    C           1.409554277      -0.377716265      -3.737569252
    C          -1.031738444      -1.031804263      -3.737622867
    C           0.640958110       2.417022982      -1.693672913
    C          -0.653527461      -2.413651379      -1.693676449
    C          -1.763451712       1.772816906      -1.693725717
    C           1.772793535      -1.763574709      -1.693623163
    C           2.417100564       0.640807013      -1.693621403
    C          -2.413630255      -0.653475735      -1.693727493
    C          -0.398380438       1.487089773      -2.249865245
    C          -1.088598012      -1.088617841      -2.249867130
    C           1.029377527       1.029209214      -4.258021116
    C          -1.405877327       0.376738923      -4.258074597
    N           0.000000000       0.000000000       0.000000000
    H           0.638465842      -2.382660388      -3.907906098
    H           0.374975266      -1.399098359      -5.328003259
    H           2.065563833       2.065380616      -3.269544158
    H           2.763953467       2.763782766      -1.833101349
    H          -3.773083249       1.011079581      -1.826663111
    H          -2.828126619       0.757859829      -3.269518860
    H           0.756022443      -2.821478039      -3.269547736
    H           1.011603364      -3.775519717      -1.833106137
    H          -0.332367250       2.690457582       0.207580903
    H           1.366810804       3.122420956       0.203028414
    H          -0.386728285      -3.388290965       0.207838542
    H          -1.632510455      -2.154674125       0.202756439
    H          -2.740991517       2.029057527       0.207753263
    H          -1.049755575       2.491128289       0.202744313
    H           2.496181090      -1.057391705       0.207668036
    H           2.020682828      -2.744903785       0.203076319
    H           3.127704906       1.359236810       0.207894595
    H           2.682251496      -0.336450875       0.202847522
    H          -2.163828722      -1.633062511       0.207561960
    H          -3.387508183      -0.377513880       0.202936361
    H           0.371178460      -1.385496358       1.465539389
    H          -1.385524404       0.371279218       1.465488443
    H           1.014240904       1.014240904       1.465541145
    H          -0.637610895       2.380140627      -4.105092960
    H           2.380235312      -0.637830490      -4.105005440
    H          -1.742330194      -1.742376698      -4.105095978
    H           0.386074403       3.396923246      -2.039696158
    H          -1.364244097      -3.134797842      -2.039700939
    H          -2.032610468       2.748892500      -2.039749275
    H           2.748868457      -2.032784334      -2.039610610
    H           3.397000756       0.385872269      -2.039608839
    H          -3.134796670      -1.364171985      -2.039752286
    H           1.024495508       1.024296057      -5.328007256
    H           1.744288357       1.744100044      -3.907683685
    H          -2.382520299       0.638450792      -3.907993709
    H          -1.398927235       0.374877565      -5.328054703
