64
Generated from the PW2PY python module
    C           1.251482609       0.896763477      -2.249810563
    C           1.325908531      -0.600693661      -4.258022898
    C          -0.284481378       2.889479753      -2.199696892
    C          -2.360028166      -1.691096219      -2.199803571
    C           2.644637134      -1.198284286      -2.199700448
    C          -1.462850429       2.029048291      -0.144982621
    C           1.451062152      -2.037494941      -0.144986159
    C          -2.490050411      -0.237904964      -0.145035417
    C           2.488634176       0.252348635      -0.144932830
    C           1.038996666       2.275406445      -0.144931070
    C          -1.025775339      -2.281390387      -0.145037195
    C           1.295118217      -0.586852727       0.395616702
    C          -1.155794855      -0.828195382       0.395566200
    C          -0.139346311       1.415030260       0.395618444
    C          -1.329041137       0.602303402      -3.737621080
    C           1.186190388       0.849979528      -3.737569252
    C           0.143067541      -1.452114298      -3.737622867
    C          -1.461764511       2.028810467      -1.693672913
    C           1.451184314      -2.036387784      -1.693676449
    C          -2.489127923      -0.238503468      -1.693725717
    C           2.487909998       0.251587982      -1.693623163
    C           1.038041845       2.274967668      -1.693621403
    C          -1.026047250      -2.280322035      -1.693727493
    C          -1.402265814       0.635447521      -2.249865245
    C           0.150913703      -1.532109490      -2.249867130
    C          -0.142559291       1.448643002      -4.258021116
    C          -1.183102261      -0.847757227      -4.258074597
    N           0.000000000       0.000000000       0.000000000
    H           2.246859829      -1.018002978      -3.907906098
    H           1.319399448      -0.597718803      -5.328003259
    H          -0.286180983       2.906966026      -3.269544158
    H          -0.382999452       3.889890148      -1.833101349
    H          -3.175193759      -2.275210697      -1.826663111
    H          -2.379978104      -1.705390254      -3.269518860
    H           2.660647579      -1.205513468      -3.269547736
    H           3.560270589      -1.613184378      -1.833106137
    H          -2.290603387       1.449884863       0.207580903
    H          -1.546568444       3.037401924       0.203028414
    H           2.373846508      -2.448454040       0.207838542
    H           0.629931953      -2.628858441       0.202756439
    H          -3.307349289      -0.831594627       0.207753263
    H          -2.591626095       0.768883023       0.202744313
    H           2.400935361       1.258771880       0.207668036
    H           3.403746934      -0.179339578       0.203076319
    H           0.933490725       3.280039291       0.207894595
    H           1.961682379       1.859966270       0.202847522
    H          -0.110344017      -2.708666111       0.207561960
    H          -1.857190266      -2.858071506       0.202936361
    H           1.306476290      -0.592024755       1.465539389
    H          -1.165970093      -0.835487805       1.465488443
    H          -0.140591203       1.427446439       1.465541145
    H          -2.244369655       1.017065342      -4.105092960
    H           2.003054933       1.435311398      -4.105005440
    H           0.241552827      -2.452191529      -4.105095978
    H          -2.380934170       2.453424844      -2.039696158
    H           1.557764207      -3.043269646      -2.039700939
    H          -3.414397068       0.172649801      -2.039749275
    H           3.315227228       0.835319322      -2.039610610
    H           1.856751168       2.870711870      -2.039608839
    H          -0.934174750      -3.288652141      -2.039752286
    H          -0.141858490       1.441752277      -5.328007256
    H          -0.241642747       2.454798489      -3.907683685
    H          -2.004984013      -1.436684201      -3.907993709
    H          -1.177254320      -0.843565567      -5.328054703
