68
 D-Tensor orientation as XYZ file; He=chosen origin Ne=g1 Ar=g2 Kr=g3
C        8.091600000      6.206040000      8.091600000
C        8.028270000      8.028270000      9.810990000
C        9.804780000      6.248830000      6.248830000
C        6.248830000      9.804780000      6.248830000
C        6.248830000      6.248830000      9.804780000
C        8.013620000      6.253760000      4.476130000
C        4.476130000      6.253760000      8.013620000
C        6.253760000      8.013620000      4.476130000
C        6.253760000      4.476130000      8.013620000
C        8.013620000      4.476130000      6.253760000
C        4.476130000      8.013620000      6.253760000
C        5.355250000      5.355250000      7.096690000
C        5.355250000      7.096690000      5.355250000
C        7.096690000      5.355250000      5.355250000
C        8.917750000      8.917750000      7.130610000
C        8.917750000      7.130610000      8.917750000
C        7.130610000      8.917750000      8.917750000
C        8.907460000      7.147320000      5.371140000
C        5.371140000      7.147320000      8.907460000
C        7.147320000      8.907460000      5.371140000
C        7.147320000      5.371140000      8.907460000
C        8.907460000      5.371140000      7.147320000
C        5.371140000      8.907460000      7.147320000
C        8.091600000      8.091600000      6.206040000
C        6.206040000      8.091600000      8.091600000
C        9.810990000      8.028270000      8.028270000
C        8.028270000      9.810990000      8.028270000
N        6.164130000      6.164130000      6.164130000
H        7.413360000      7.413360000     10.434410000
H        8.648950000      8.648950000     10.422890000
H       10.436790000      6.859340000      6.859340000
H       10.413920000      5.626790000      5.626790000
H        5.623980000     10.408140000      5.623980000
H        6.856400000     10.442440000      6.856400000
H        6.859340000      6.859340000     10.436790000
H        5.626790000      5.626790000     10.413920000
H        7.405680000      6.875000000      3.852130000
H        8.638760000      5.628850000      3.873150000
H        3.864670000      5.633050000      8.634700000
H        3.860530000      6.879190000      7.401440000
H        5.633050000      8.634700000      3.864670000
H        6.879190000      7.401440000      3.860530000
H        6.875000000      3.852130000      7.405680000
H        5.628850000      3.873150000      8.638760000
H        8.634700000      3.864670000      5.633050000
H        7.401440000      3.860530000      6.879190000
H        3.852130000      7.405680000      6.875000000
H        3.873150000      8.638760000      5.628850000
H        4.732430000      4.732430000      6.489170000
H        4.732430000      6.489170000      4.732430000
H        6.489170000      4.732430000      4.732430000
H        9.540160000      9.540160000      6.522250000
H        9.540160000      6.522250000      9.540160000
H        6.522250000      9.540160000      9.540160000
H        9.525800000      7.755210000      4.744220000
H        4.744220000      7.755210000      9.525800000
H        7.755210000      9.525800000      4.744220000
H        7.755210000      4.744220000      9.525800000
H        9.525800000      4.744220000      7.755210000
H        4.744220000      9.525800000      7.755210000
H       10.423080000      8.648860000      8.648860000
H       10.434230000      7.413260000      7.413260000
H        7.413360000     10.434410000      7.413360000
H        8.648950000     10.422890000      8.648950000
He       7.133472677      7.133495563      7.133471846
Ne       7.724978876      7.067143468      6.608322362
Ar       7.398370450      6.488805079      7.513297485
Kr       6.675200104      6.675198993      6.675198273
