64
Generated from the PW2PY python module
    C           0.250824304       1.519039375      -2.249810563
    C           1.362313474       0.512804353      -4.258022898
    C          -2.244329439       1.842012016      -2.199696892
    C          -0.473006316      -2.864577525      -2.199803571
    C           2.717355796       1.022725906      -2.199700448
    C          -2.469145264       0.400362348      -0.144982621
    C           2.466782378      -0.414670602      -0.144986159
    C          -1.592507318      -1.928955744      -0.145035417
    C           1.581292671       1.938167533      -0.144932830
    C          -0.874273739       2.343636915      -0.144931070
    C           0.887853915      -2.338519311      -0.145037195
    C           1.330754417       0.500819331       0.395616702
    C          -0.231647809      -1.402892950       0.395566200
    C          -1.099110214       0.902044771       0.395618444
    C          -1.365666821      -0.513881181      -3.737621080
    C           0.237736979       1.439789556      -3.737569252
    C           1.127963896      -0.925635839      -3.737622867
    C          -2.468209237       0.400962041      -1.693672913
    C           2.466085881      -0.413801342      -1.693676449
    C          -1.591431814      -1.928726654      -1.693725717
    C           1.581318462       1.937117599      -1.693623163
    C          -0.874638637       2.342651493      -1.693621403
    C           0.886906206      -2.337956143      -1.693727493
    C          -1.440880918      -0.542222415      -2.249865245
    C           1.190077113      -0.976652908      -2.249867130
    C          -1.125149932       0.923540649      -4.258021116
    C          -0.237124747      -1.436034515      -4.258074597
    N           0.000000000       0.000000000       0.000000000
    H           2.308606631       0.868933012      -3.907906098
    H           1.355607315       0.510305278      -5.328003259
    H          -2.257895903       1.853174877      -3.269544158
    H          -3.021389211       2.479746193      -1.833101349
    H          -0.636384126      -3.854017951      -1.826663111
    H          -0.477005643      -2.888791670      -3.269518860
    H           2.733788693       1.028935198      -3.269547736
    H           3.658185089       1.376797863      -1.833106137
    H          -2.644924606      -0.594477769       0.207580903
    H          -3.241356532       1.054178463       0.203028414
    H           3.409881419      -0.052755492       0.207838542
    H           2.304312786      -1.413454475       0.202756439
    H          -1.750622910      -2.926675309       0.207753263
    H          -2.376238786      -1.288873987       0.202744313
    H           0.807631543       2.587803807       0.207668036
    H           2.533624771       2.280000307       0.203076319
    H          -1.659260404       2.979415647       0.207894595
    H           0.071924150       2.702313675       0.202847522
    H           1.837291172      -1.993341178       0.207561960
    H           0.707729912      -3.334193574       0.202936361
    H           1.342442963       0.505193525       1.465539389
    H          -0.233686267      -1.415244452       1.465488443
    H          -1.108770050       0.909944064       1.465541145
    H          -2.306182803      -0.867835202      -4.105092960
    H           0.401455304       2.431292149      -4.105005440
    H           1.904764901      -1.563157617      -4.105095978
    H          -3.418408041       0.051258647      -2.039696158
    H           3.253422238      -1.050410969      -2.039700939
    H          -2.536425166      -2.292261475      -2.039749275
    H           1.753559697       2.934879611      -2.039610610
    H          -0.716978488       3.342821172      -2.039608839
    H           1.664866929      -2.985989530      -2.039752286
    H          -1.119781912       0.919163712      -5.328007256
    H          -1.906671883       1.564937433      -3.907683685
    H          -0.401848651      -2.433626933      -3.907993709
    H          -0.235953580      -1.428935445      -5.328054703
