64
Coordinates from ORCA-job nv
  C   8.19394799023856      6.11708599787803      8.19436666314209
  C   8.14100164940414      8.14162342870043      9.84925267709251
  C   9.82599828170985      6.14620111340093      6.14642942223111
  C   6.14616321963972      9.82613357409259      6.14579349528693
  C   6.14607789460477      6.14657580093675      9.82599391384483
  C   8.09138010342736      6.15505563458609      4.46323865572733
  C   4.46360328216986      6.15616297730875      8.09024540163998
  C   6.15623636578149      8.09016286994007      4.46360251775251
  C   6.15519915841754      4.46328235991451      8.09145618964222
  C   8.09031390921966      4.46364445956999      6.15630567790354
  C   4.46324107534794      8.09130398988764      6.15513549332795
  C   5.31477124561397      5.31449677807313      7.09251258798296
  C   5.31458178045896      7.09242537515401      5.31476826494526
  C   7.09250978808560      5.31468004076142      5.31458923600736
  C   8.98127607087209      8.98087231040494      7.15915016937053
  C   8.98088373343346      7.15934720702135      8.98136429576774
  C   7.15915666459002      8.98135887639830      8.98079388194339
  C   8.95104461797627      7.12821687638347      5.32417480442767
  C   5.32444910482754      7.12856876504681      8.95056782590743
  C   7.12846048668111      8.95073028922495      5.32442909298228
  C   7.12820897316084      5.32435073140734      8.95114624471903
  C   8.95067591533831      5.32461780211887      7.12855375887379
  C   5.32416646680532      8.95120842535728      7.12811122662695
  C   8.19426982724758      8.19396656827820      6.11691214659039
  C   6.11691781033763      8.19439273241630      8.19384661626418
  C   9.84925266646586      8.14115078385332      8.14145120244416
  C   8.14122077962647      9.84925778472590      8.14075148308165
  N   6.08761536270988      6.08753717987206      6.08761734708055
  H   7.68110214366397      7.68198433683688     10.71842091463558
  H   8.85665818380205      8.85733229675400     10.29291913678990
  H   10.69596698525984      6.60412726185170      6.60452474057760
  H   10.26543516653250      5.42810584586600      5.42893298830443
  H   5.42839766936951     10.26481585932436      5.42747669802707
  H   6.60355537846090     10.69694854162202      6.60297928697480
  H   6.60398958574061      6.60472908236106     10.69593658996564
  H   5.42803567855483      5.42904157806324     10.26545449939136
  H   7.66447033087657      6.60124550792385      3.57343704263577
  H   8.79389769588753      5.41597643908905      4.04216451951565
  H   4.03945166393685      5.41836390989676      8.79214763479194
  H   3.57694559241352      6.60523193005367      7.66060631018781
  H   5.41839132587843      8.79187168855444      4.03922439711108
  H   6.60548477945424      7.66038056855077      3.57712178820298
  H   6.60151977331185      3.57354258011304      7.66456715210030
  H   5.41613710772274      4.04212871370658      8.79394296096877
  H   8.79217506604755      4.03940223540747      5.41852115739682
  H   7.66068577658963      3.57705706948723      6.60551034809387
  H   3.57361388834789      7.66425592439129      6.60150771573608
  H   4.04194249830372      8.79363202194547      5.41601170154385
  H   4.60789365505841      4.60777420234752      6.57426512745409
  H   4.60791453095403      6.57416466243206      4.60784124605023
  H   6.57426168521046      4.60769321121813      4.60797597774729
  H   9.69224121028052      9.69157190044325      6.64799704520190
  H   9.69153158937114      6.64821054422466      9.69238197683005
  H   6.64800437140480      9.69243453372429      9.69138296880064
  H   9.64945380272439      7.63340897761045      4.59622179931379
  H   4.59612953077326      7.63371789214481      9.64867485193590
  H   7.63361031564186      9.64879191374328      4.59607227482232
  H   7.63341107052490      4.59648710952462      9.64964188708652
  H   9.64886419550542      4.59638296877072      7.63371310599908
  H   4.59618232410245      9.64957869691792      7.63330398211836
  H   10.29294636591351      8.85694173827515      8.85700740969611
  H   10.71838996180670      7.68125562178723      7.68175552058235
  H   7.68091809385535     10.71764137735514      7.68021678964659
  H   8.85662678252584     10.29364052496797      8.85624016115668
