64
Generated from the PW2PY python module
    C           1.052485846       1.123684563      -2.249810563
    C           1.417621090      -0.330479578      -4.258022898
    C          -0.842724683       2.778459646      -2.199696892
    C          -1.984764381      -2.119020935      -2.199803571
    C           2.827594840      -0.659316480      -2.199700448
    C          -1.830589853       1.704672736      -0.144982621
    C           1.820675944      -1.715256865      -0.144986159
    C          -2.395791835      -0.719118423      -0.145035417
    C           2.391584992       0.733008269      -0.144932830
    C           0.575122860       2.434383342      -0.144931070
    C          -0.560988168      -2.437672951      -0.145037195
    C           1.384722171      -0.322911487       0.395616702
    C          -0.972013677      -1.037766230       0.395566200
    C          -0.412727520       1.360655733       0.395618444
    C          -1.421007549       0.331447247      -3.737621080
    C           0.997575293       1.065061675      -3.737569252
    C           0.423611985      -1.396301236      -3.737622867
    C          -1.829478403       1.704651333      -1.693672913
    C           1.820579763      -1.714147149      -1.693676449
    C          -2.394770310      -0.719525459      -1.693725717
    C           2.391023125       0.732120952      -1.693623163
    C           0.574271987       2.433766720      -1.693621403
    C          -0.561463280      -2.436678175      -1.693727493
    C          -1.499291331       0.349669086      -2.249865245
    C           0.446913672      -1.473228633      -2.249867130
    C          -0.422436284       1.392995795      -4.258021116
    C          -0.994980052      -1.062279611      -4.258074597
    N           0.000000000       0.000000000       0.000000000
    H           2.402289576      -0.560101729      -3.907906098
    H           1.410656711      -0.328831740      -5.328003259
    H          -0.847803033       2.795278349      -3.269544158
    H          -1.134520146       3.740427513      -1.833101349
    H          -2.670311713      -2.850942734      -1.826663111
    H          -2.001542358      -2.136932353      -3.269518860
    H           2.844707992      -0.663283272      -3.269547736
    H           3.806577647      -0.887613157      -1.833106137
    H          -2.529448590       0.975151180       0.207580903
    H          -2.109419285       2.677318562       0.203028414
    H           2.805903400      -1.938293203       0.207838542
    H           1.130692827      -2.455452036       0.202756439
    H          -3.081563436      -1.460847607       0.207753263
    H          -2.691830363       0.248507982       0.202744313
    H           2.109227850       1.702984184       0.207668036
    H           3.373332308       0.488144467       0.203076319
    H           0.275650040       3.399129262       0.207894595
    H           1.561127784       2.206932787       0.202847522
    H           0.420210756      -2.678146901       0.207561960
    H          -1.263922785      -3.165474311       0.202936361
    H           1.396871014      -0.325768285       1.465539389
    H          -0.980570720      -1.046903622       1.465488443
    H          -0.416370768       1.372590473       1.465541145
    H          -2.399664326       0.559667918      -4.105092960
    H           1.684551432       1.798508924      -4.105005440
    H           0.715310292      -2.357948738      -4.105095978
    H          -2.813824630       1.941785759      -2.039696158
    H           2.121544660      -2.680889352      -2.039700939
    H          -3.382472691      -0.496783440      -2.039749275
    H           3.088563351       1.466037643      -2.039610610
    H           1.261026112       3.177786130      -2.039608839
    H          -0.274640639      -3.407710065      -2.039752286
    H          -0.420404634       1.386374193      -5.328007256
    H          -0.715907077       2.360488063      -3.907683685
    H          -1.686175624      -1.800231694      -3.907993709
    H          -0.990062230      -1.057027615      -5.328054703
