64
Generated from the PW2PY python module
    C          -0.050345096       1.538784854      -2.249810563
    C           1.236093837       0.768725135      -4.258022898
    C          -2.560563995       1.368771318      -2.199696892
    C           0.094933720      -2.901814425      -2.199803571
    C           2.465618640       1.533204332      -2.199700448
    C          -2.499808150      -0.089036847      -0.144982621
    C           2.500282067       0.074542546      -0.144986159
    C          -1.185587139      -2.202574166      -0.145035417
    C           1.172790848       2.209421084      -0.144932830
    C          -1.314695695       2.128042244      -0.144931070
    C           1.327016536      -2.120373612      -0.145037195
    C           1.207479339       0.750813536       0.395616702
    C           0.046494076      -1.421129001       0.395566200
    C          -1.253971324       0.670286468       0.395618444
    C          -1.239172670      -0.770435478      -3.737621080
    C          -0.047720079       1.458504587      -3.737569252
    C           1.286872980      -0.687795166      -3.737622867
    C          -2.499007102      -0.088266067      -1.693672913
    C           2.499429369       0.075259223      -1.693676449
    C          -1.184576994      -2.202139657      -1.693725717
    C           1.173020975       2.208396356      -1.693623163
    C          -1.314861335       2.127004568      -1.693621403
    C           1.325977169      -2.120006154      -1.693727493
    C          -1.307412449      -0.812905685      -2.249865245
    C           1.357745645      -0.725714269      -2.249867130
    C          -1.283704334       0.686289211      -4.258021116
    C           0.047587974      -1.454702258      -4.258074597
    N           0.000000000       0.000000000       0.000000000
    H           2.094726981       1.302623519      -3.907906098
    H           1.230004080       0.764965773      -5.328003259
    H          -2.576047550       1.377073002      -3.269544158
    H          -3.447108548       1.842654771      -1.833101349
    H           0.127725419      -3.904116460      -1.826663111
    H           0.095735183      -2.926343532      -3.269518860
    H           2.480524411       1.542500213      -3.269547736
    H           3.319294150       2.064019585      -1.833106137
    H          -2.478126262      -1.099054238       0.207580903
    H          -3.384734791       0.401565430       0.203028414
    H           3.354653589       0.613493054       0.207838542
    H           2.535787351      -0.936746220       0.202756439
    H          -1.146019153      -3.211969651       0.207753263
    H          -2.079133183      -1.727689824       0.202744313
    H           0.287257651       2.695640980       0.207668036
    H           2.040135887       2.730476413       0.203076319
    H          -2.208633338       2.598461364       0.207894595
    H          -0.456653097       2.664421181       0.202847522
    H           2.190869710      -1.596601960       0.207561960
    H           1.344599979      -3.132056723       0.202936361
    H           1.218089930       0.757384003       1.465539389
    H           0.046904445      -1.433640856       1.465488443
    H          -1.264986625       0.676149438       1.465541145
    H          -2.092563898      -1.301073937      -4.105092960
    H          -0.080580116       2.462895597      -4.105005440
    H           2.173122300      -1.161520784      -4.105095978
    H          -3.362724355      -0.616624599      -2.039696158
    H           3.395833657      -0.395516425      -2.039700939
    H          -2.040490438      -2.743048316      -2.039749275
    H           1.147298931       3.220589248      -2.039610610
    H          -1.355354007       3.138714237      -2.039608839
    H           2.215414637      -2.603815154      -2.039752286
    H          -1.277585561       0.683043625      -5.328007256
    H          -2.175339865       1.162894367      -3.907683685
    H           0.080649821      -2.465262257      -3.907993709
    H           0.047351678      -1.447511111      -5.328054703
