64
Generated from the PW2PY python module
    C           1.440918065      -0.542354666      -2.249810563
    C           0.237176786      -1.436180169      -4.258022898
    C           2.244465224       1.841846561      -2.199696892
    C          -2.717256516       1.022768984      -2.199803571
    C           0.472944698      -2.864666492      -2.199700448
    C           0.874375843       2.343594511      -0.144982621
    C          -0.887948191      -2.338485625      -0.144986159
    C          -1.581208635       1.938228334      -0.145035417
    C           1.592431291      -1.929026304      -0.144932830
    C           2.469166935       0.400253934      -0.144931070
    C          -2.466797024      -0.414571565      -0.145037195
    C           0.231578920      -1.402889348       0.395616702
    C          -1.330744510       0.500887599       0.395566200
    C           1.099137999       0.902010914       0.395618444
    C          -0.237578718       1.439679161      -3.737621080
    C           1.365744219      -0.514057938      -3.737569252
    C          -1.127904845      -0.925707792      -3.737622867
    C           0.874781402       2.342559475      -1.693672913
    C          -0.886959754      -2.337972095      -1.693676449
    C          -1.581193767       1.937128802      -1.693725717
    C           1.591396499      -1.928846768      -1.693623163
    C           2.468271635       0.400804067      -1.693621403
    C          -2.466059788      -0.413751935      -1.693727493
    C          -0.250701841       1.518977140      -2.249865245
    C          -1.190059323      -0.976674584      -2.249867130
    C           1.125300936       0.923356649      -4.258021116
    C          -1.362180772       0.512724898      -4.258074597
    N           0.000000000       0.000000000       0.000000000
    H           0.401849897      -2.433767823      -3.907906098
    H           0.236034038      -1.429115322      -5.328003259
    H           2.258060280       1.852974583      -3.269544158
    H           3.021542359       2.479559582      -1.833101349
    H          -3.655811692       1.376037787      -1.826663111
    H          -2.740225163       1.031415411      -3.269518860
    H           0.475828780      -2.881995009      -3.269547736
    H           0.636666571      -3.856494027      -1.833106137
    H          -0.067055852       2.710079981       0.207580903
    H           1.666280009       2.973414760       0.203028414
    H          -0.716976674      -3.334069417       0.207838542
    H          -1.835844467      -1.984284774       0.202756439
    H          -2.528910477       2.287951210       0.207753263
    H          -0.800527444       2.582026865       0.202744313
    H           2.380518785      -1.296968607       0.207668036
    H           1.741905068      -2.929747875       0.203076319
    H           3.245872657       1.046123022       0.207894595
    H           2.636357770      -0.597737393       0.202847522
    H          -2.313477412      -1.413106565       0.207561960
    H          -3.408199236      -0.043662182       0.202936361
    H           0.233588743      -1.415206665       1.465539389
    H          -1.342460998       0.505296547       1.465488443
    H           1.108770050       0.909944064       1.465541145
    H          -0.401246046       2.431176396      -4.105092960
    H           2.306255508      -0.868063021      -4.105005440
    H          -1.904723180      -1.563208455      -4.105095978
    H           0.717172052       3.342724223      -2.039696158
    H          -1.664938809      -2.985983628      -2.039700939
    H          -1.753384311       2.934886497      -2.039749275
    H           2.536384197      -2.292432147      -2.039610610
    H           3.418465365       0.051049889      -2.039608839
    H          -3.253414004      -1.050339318      -2.039752286
    H           1.119960852       0.918945672      -5.328007256
    H           1.906840830       1.564731569      -3.907683685
    H          -2.308468691       0.868904303      -3.907993709
    H          -1.355446591       0.510191274      -5.328054703
