64
Generated from the PW2PY python module
    C           0.157666281       1.531776595     -12.926398094
    C          -1.179385121       0.853388317     -14.934610429
    C           2.649895873       1.186964753     -12.876284423
    C          -0.297211479      -2.887851692     -12.876391102
    C          -2.352550579       1.701823641     -12.876287979
    C           2.487533383      -0.263047092     -10.821570152
    C          -2.488943874       0.249139010     -10.821573690
    C           1.028993092      -2.279697064     -10.821622948
    C          -1.015676128       2.286151891     -10.821520361
    C           1.460063243       2.031345282     -10.821518601
    C          -1.471744794      -2.022317572     -10.821624726
    C          -1.152090641       0.833523116     -10.280970829
    C          -0.145538321      -1.414158716     -10.281021331
    C           1.297735805       0.581383502     -10.280969087
    C           1.182411033      -0.854791603     -14.414208611
    C           0.149444113       1.451875356     -14.414156783
    C          -1.331705350      -0.596035177     -14.414210398
    C           2.486788089      -0.262222279     -12.370260444
    C          -2.488043233       0.249794421     -12.370263980
    C           1.028015740      -2.279193107     -12.370313248
    C          -1.015977220       2.285145726     -12.370210694
    C           1.460156049       2.030298575     -12.370208934
    C          -1.470682313      -2.022023558     -12.370315024
    C           1.247519961      -0.901921354     -12.926452776
    C          -1.405051907      -0.628914893     -12.926454661
    C           1.328513286       0.595271854     -14.934608647
    C          -0.148972961      -1.447573735     -14.934662128
    N           0.000036985       0.000258893     -10.676587531
    H          -1.998658031       1.445917018     -14.584493629
    H          -1.173572619       0.849213059     -16.004590790
    H           2.665921122       1.194165439     -13.946131689
    H           3.567355165       1.597811710     -12.509688880
    H          -0.399883759      -3.885420272     -12.503250642
    H          -0.299723117      -2.912265031     -13.946106391
    H          -2.366771144       1.712137269     -13.946135267
    H          -3.167093150       2.290930689     -12.509693668
    H           2.395405288      -1.269087675     -10.469006628
    H           3.404545680       0.164590844     -10.473559117
    H          -3.303612921       0.846410053     -10.468748989
    H          -2.594950392      -0.757204975     -10.473831092
    H           0.919065932      -3.283868811     -10.468834268
    H           1.953506660      -1.868340361     -10.473843218
    H          -0.098364644       2.709375799     -10.468919495
    H          -1.844536129       2.866476950     -10.473511212
    H           2.384655783       2.438220320     -10.468692936
    H           0.641552579       2.626307265     -10.473740009
    H          -2.296931848      -1.439526546     -10.469025571
    H          -1.559900707      -3.030305882     -10.473651170
    H          -1.162216735       0.840818176      -9.211048142
    H          -0.146821015      -1.426611412      -9.211099088
    H           1.309133475       0.586463305      -9.211046386
    H           1.996682354      -1.443702445     -14.781680491
    H           0.252330374       2.451523045     -14.781592971
    H          -2.248859112      -1.006745292     -14.781683509
    H           3.311519389      -0.849579510     -12.716283689
    H          -3.415121286      -0.157264105     -12.716288470
    H           1.844086268      -2.878525150     -12.716336806
    H          -0.919666972       3.293074500     -12.716198141
    H           1.571167169       3.036714315     -12.716196370
    H          -2.391720266      -2.442569930     -12.716339817
    H           1.322182895       0.592461273     -16.004594787
    H           2.251241114       1.008478528     -14.584271216
    H          -0.252491131      -2.453361280     -14.584581240
    H          -0.148235299      -1.440416621     -16.004642234
