64
Generated from the PW2PY python module
    C           1.531776595       0.157666281     -12.926398094
    C           0.853388317      -1.179385121     -14.934610429
    C           1.186964753       2.649895873     -12.876284423
    C          -2.887851692      -0.297211479     -12.876391102
    C           1.701823641      -2.352550579     -12.876287979
    C          -0.263047092       2.487533383     -10.821570152
    C           0.249139010      -2.488943874     -10.821573690
    C          -2.279697064       1.028993092     -10.821622948
    C           2.286151891      -1.015676128     -10.821520361
    C           2.031345282       1.460063243     -10.821518601
    C          -2.022317572      -1.471744794     -10.821624726
    C           0.833523116      -1.152090641     -10.280970829
    C          -1.414158716      -0.145538321     -10.281021331
    C           0.581383502       1.297735805     -10.280969087
    C          -0.854791603       1.182411033     -14.414208611
    C           1.451875356       0.149444113     -14.414156783
    C          -0.596035177      -1.331705350     -14.414210398
    C          -0.262222279       2.486788089     -12.370260444
    C           0.249794421      -2.488043233     -12.370263980
    C          -2.279193107       1.028015740     -12.370313248
    C           2.285145726      -1.015977220     -12.370210694
    C           2.030298575       1.460156049     -12.370208934
    C          -2.022023558      -1.470682313     -12.370315024
    C          -0.901921354       1.247519961     -12.926452776
    C          -0.628914893      -1.405051907     -12.926454661
    C           0.595271854       1.328513286     -14.934608647
    C          -1.447573735      -0.148972961     -14.934662128
    N           0.000258893       0.000036985     -10.676587531
    H           1.445917018      -1.998658031     -14.584493629
    H           0.849213059      -1.173572619     -16.004590790
    H           1.194165439       2.665921122     -13.946131689
    H           1.597811710       3.567355165     -12.509688880
    H          -3.885420272      -0.399883759     -12.503250642
    H          -2.912265031      -0.299723117     -13.946106391
    H           1.712137269      -2.366771144     -13.946135267
    H           2.290930689      -3.167093150     -12.509693668
    H          -1.269087675       2.395405288     -10.469006628
    H           0.164590844       3.404545680     -10.473559117
    H           0.846410053      -3.303612921     -10.468748989
    H          -0.757204975      -2.594950392     -10.473831092
    H          -3.283868811       0.919065932     -10.468834268
    H          -1.868340361       1.953506660     -10.473843218
    H           2.709375799      -0.098364644     -10.468919495
    H           2.866476950      -1.844536129     -10.473511212
    H           2.438220320       2.384655783     -10.468692936
    H           2.626307265       0.641552579     -10.473740009
    H          -1.439526546      -2.296931848     -10.469025571
    H          -3.030305882      -1.559900707     -10.473651170
    H           0.840818176      -1.162216735      -9.211048142
    H          -1.426611412      -0.146821015      -9.211099088
    H           0.586463305       1.309133475      -9.211046386
    H          -1.443702445       1.996682354     -14.781680491
    H           2.451523045       0.252330374     -14.781592971
    H          -1.006745292      -2.248859112     -14.781683509
    H          -0.849579510       3.311519389     -12.716283689
    H          -0.157264105      -3.415121286     -12.716288470
    H          -2.878525150       1.844086268     -12.716336806
    H           3.293074500      -0.919666972     -12.716198141
    H           3.036714315       1.571167169     -12.716196370
    H          -2.442569930      -2.391720266     -12.716339817
    H           0.592461273       1.322182895     -16.004594787
    H           1.008478528       2.251241114     -14.584271216
    H          -2.453361280      -0.252491131     -14.584581240
    H          -1.440416621      -0.148235299     -16.004642234
