64
Generated from the PW2PY python module
    C           0.398508412       1.487139704      -2.249810563
    C           1.406017179       0.376804988      -4.258022898
    C          -2.052973629       2.053124978      -2.199696892
    C          -0.751506358      -2.804421074      -2.199803571
    C           2.804515653       0.751453757      -2.199700448
    C          -2.418013282       0.640453052      -0.144982621
    C           2.414259320      -0.654460804      -0.144986159
    C          -1.773909686      -1.763574282      -0.145035417
    C           1.763651954       1.773840941      -0.144932830
    C          -0.640347284       2.418045475      -0.144931070
    C           0.654363680      -2.414283603      -0.145037195
    C           1.373435349       0.367971007       0.395616702
    C          -0.368039917      -1.373432181       0.395566200
    C          -1.005401849       1.005432819       0.395618444
    C          -1.409459925      -0.377547946      -3.737621080
    C           0.377716265       1.409554277      -3.737569252
    C           1.031804263      -1.031738444      -3.737622867
    C          -2.417022982       0.640958110      -1.693672913
    C           2.413651379      -0.653527461      -1.693676449
    C          -1.772816906      -1.763451712      -1.693725717
    C           1.763574709       1.772793535      -1.693623163
    C          -0.640807013       2.417100564      -1.693621403
    C           0.653475735      -2.413630255      -1.693727493
    C          -1.487089773      -0.398380438      -2.249865245
    C           1.088617841      -1.088598012      -2.249867130
    C          -1.029209214       1.029377527      -4.258021116
    C          -0.376738923      -1.405877327      -4.258074597
    N           0.000000000       0.000000000       0.000000000
    H           2.382660388       0.638465842      -3.907906098
    H           1.399098359       0.374975266      -5.328003259
    H          -2.065380616       2.065563833      -3.269544158
    H          -2.763782766       2.763953467      -1.833101349
    H          -1.011079581      -3.773083249      -1.826663111
    H          -0.757859829      -2.828126619      -3.269518860
    H           2.821478039       0.756022443      -3.269547736
    H           3.775519717       1.011603364      -1.833106137
    H          -2.690457582      -0.332367250       0.207580903
    H          -3.122420956       1.366810804       0.203028414
    H           3.388290965      -0.386728285       0.207838542
    H           2.154674125      -1.632510455       0.202756439
    H          -2.029057527      -2.740991517       0.207753263
    H          -2.491128289      -1.049755575       0.202744313
    H           1.057391705       2.496181090       0.207668036
    H           2.744903785       2.020682828       0.203076319
    H          -1.359236810       3.127704906       0.207894595
    H           0.336450875       2.682251496       0.202847522
    H           1.633062511      -2.163828722       0.207561960
    H           0.377513880      -3.387508183       0.202936361
    H           1.385496358       0.371178460       1.465539389
    H          -0.371279218      -1.385524404       1.465488443
    H          -1.014240904       1.014240904       1.465541145
    H          -2.380140627      -0.637610895      -4.105092960
    H           0.637830490       2.380235312      -4.105005440
    H           1.742376698      -1.742330194      -4.105095978
    H          -3.396923246       0.386074403      -2.039696158
    H           3.134797842      -1.364244097      -2.039700939
    H          -2.748892500      -2.032610468      -2.039749275
    H           2.032784334       2.748868457      -2.039610610
    H          -0.385872269       3.397000756      -2.039608839
    H           1.364171985      -3.134796670      -2.039752286
    H          -1.024296057       1.024495508      -5.328007256
    H          -1.744100044       1.744288357      -3.907683685
    H          -0.638450792      -2.382520299      -3.907993709
    H          -0.374877565      -1.398927235      -5.328054703
