64
Generated from the PW2PY python module
    C          -0.769778569       1.333354570      -2.249810563
    C           0.727762919       1.260645644      -4.258022898
    C          -2.903450169       0.000107020      -2.199696892
    C           1.451629917      -2.514420401      -2.199803571
    C           1.451733989       2.514450084      -2.199700448
    C          -2.162662285      -1.256924893      -0.144982621
    C           2.169912809       1.244365464      -0.144986159
    C          -0.007308234      -2.501378902      -0.145035417
    C          -0.007204702       2.501385214      -0.144932830
    C          -2.162610259       1.257022446      -0.144931070
    C           2.169861303      -1.244451312      -0.145037195
    C           0.710970655       1.231360243       0.395616702
    C           0.710919688      -1.231406730       0.395566200
    C          -1.421874829       0.000021899       0.395618444
    C          -0.729671958      -1.263605384      -3.737621080
    C          -0.729619655       1.263791120      -3.737569252
    C           1.459145042       0.000046541      -3.737622867
    C          -2.162319167      -1.255867515      -1.693672913
    C           2.168822957       1.244595558      -1.693676449
    C          -0.006622192      -2.500519520      -1.693725717
    C          -0.006518694       2.500589966      -1.693623163
    C          -2.162267184       1.256029215      -1.693621403
    C           2.168771444      -1.244617197      -1.693727493
    C          -0.769833753      -1.333228772      -2.249865245
    C           1.539524094       0.000014021      -2.249867130
    C          -1.455640644       0.000119015      -4.258021116
    C           0.727710744      -1.260500039      -4.258074597
    N           0.000000000       0.000000000       0.000000000
    H           1.233331791       2.136258844      -3.907906098
    H           0.724164384       1.254459491      -5.328003259
    H          -2.921018832       0.000129554      -3.269544158
    H          -3.908699775       0.000120704      -1.833101349
    H           1.953031523      -3.382913979      -1.826663111
    H           1.463899686      -2.535675335      -3.269518860
    H           1.460497658       2.529674851      -3.269547736
    H           1.954383996       3.385007193      -1.833106137
    H          -1.667421665      -2.137459937       0.207580903
    H          -3.174366220      -1.241403844       0.203028414
    H           2.669341711       2.122425325       0.207838542
    H           2.677943898       0.369225472       0.202756439
    H           0.503413352      -3.372934025       0.207753263
    H          -1.019204420      -2.503782992       0.202744313
    H          -1.017377731       2.512755421       0.207668036
    H           0.512101550       3.369778610       0.203076319
    H          -3.172746914       1.250495783       0.207894595
    H          -1.658731527       2.134544917       0.202847522
    H           2.684807538      -0.375308387       0.207561960
    H           2.662272632      -2.128387383       0.202936361
    H           0.717231064       1.242156676       1.465539389
    H           0.717179649      -1.242247754       1.465488443
    H          -1.434353242       0.000000000       1.465541145
    H          -1.232154590      -2.133872565      -4.105092960
    H          -1.232066265       2.134094795      -4.105005440
    H           2.464059874       0.000032883      -4.105095978
    H          -2.674983291      -2.128991634      -2.039696158
    H           3.181303064       1.251970559      -2.039700939
    H          -0.506487882      -3.381033173      -2.039749275
    H          -0.506347939       3.381139114      -2.039610610
    H          -2.674895168       2.129189372      -2.039608839
    H           3.181251244      -1.252020722      -2.039752286
    H          -1.448714409       0.000141033      -5.328007256
    H          -2.466663094       0.000133157      -3.907683685
    H           1.233243375      -2.136149144      -3.907993709
    H           0.724112466      -1.254269403      -5.328054703
