64
Generated from the PW2PY python module
    C           1.333354570       0.769778569      -2.249810563
    C           1.260645644      -0.727762919      -4.258022898
    C           0.000107020       2.903450169      -2.199696892
    C          -2.514420401      -1.451629917      -2.199803571
    C           2.514450084      -1.451733989      -2.199700448
    C          -1.256924893       2.162662285      -0.144982621
    C           1.244365464      -2.169912809      -0.144986159
    C          -2.501378902       0.007308234      -0.145035417
    C           2.501385214       0.007204702      -0.144932830
    C           1.257022446       2.162610259      -0.144931070
    C          -1.244451312      -2.169861303      -0.145037195
    C           1.231360243      -0.710970655       0.395616702
    C          -1.231406730      -0.710919688       0.395566200
    C           0.000021899       1.421874829       0.395618444
    C          -1.263605384       0.729671958      -3.737621080
    C           1.263791120       0.729619655      -3.737569252
    C           0.000046541      -1.459145042      -3.737622867
    C          -1.255867515       2.162319167      -1.693672913
    C           1.244595558      -2.168822957      -1.693676449
    C          -2.500519520       0.006622192      -1.693725717
    C           2.500589966       0.006518694      -1.693623163
    C           1.256029215       2.162267184      -1.693621403
    C          -1.244617197      -2.168771444      -1.693727493
    C          -1.333228772       0.769833753      -2.249865245
    C           0.000014021      -1.539524094      -2.249867130
    C           0.000119015       1.455640644      -4.258021116
    C          -1.260500039      -0.727710744      -4.258074597
    N           0.000000000       0.000000000       0.000000000
    H           2.136258844      -1.233331791      -3.907906098
    H           1.254459491      -0.724164384      -5.328003259
    H           0.000129554       2.921018832      -3.269544158
    H           0.000120704       3.908699775      -1.833101349
    H          -3.382913979      -1.953031523      -1.826663111
    H          -2.535675335      -1.463899686      -3.269518860
    H           2.529674851      -1.460497658      -3.269547736
    H           3.385007193      -1.954383996      -1.833106137
    H          -2.137459937       1.667421665       0.207580903
    H          -1.241403844       3.174366220       0.203028414
    H           2.122425325      -2.669341711       0.207838542
    H           0.369225472      -2.677943898       0.202756439
    H          -3.372934025      -0.503413352       0.207753263
    H          -2.503782992       1.019204420       0.202744313
    H           2.512755421       1.017377731       0.207668036
    H           3.369778610      -0.512101550       0.203076319
    H           1.250495783       3.172746914       0.207894595
    H           2.134544917       1.658731527       0.202847522
    H          -0.375308387      -2.684807538       0.207561960
    H          -2.128387383      -2.662272632       0.202936361
    H           1.242156676      -0.717231064       1.465539389
    H          -1.242247754      -0.717179649       1.465488443
    H           0.000000000       1.434353242       1.465541145
    H          -2.133872565       1.232154590      -4.105092960
    H           2.134094795       1.232066265      -4.105005440
    H           0.000032883      -2.464059874      -4.105095978
    H          -2.128991634       2.674983291      -2.039696158
    H           1.251970559      -3.181303064      -2.039700939
    H          -3.381033173       0.506487882      -2.039749275
    H           3.381139114       0.506347939      -2.039610610
    H           2.129189372       2.674895168      -2.039608839
    H          -1.252020722      -3.181251244      -2.039752286
    H           0.000141033       1.448714409      -5.328007256
    H           0.000133157       2.466663094      -3.907683685
    H          -2.136149144      -1.233243375      -3.907993709
    H          -1.254269403      -0.724112466      -5.328054703
