64
Generated from the PW2PY python module
    C           1.221435368      -0.937277492      -2.249810563
    C          -0.189937063      -1.443187520      -4.258022898
    C           2.682479140       1.111003403      -2.199696892
    C          -2.303358199       1.767506825      -2.199803571
    C          -0.378988930      -2.878603514      -2.199700448
    C           1.517035089       1.988862209      -0.144982621
    C          -1.528539985      -1.980033465      -0.144986159
    C          -0.950484336       2.313769511      -0.145035417
    C           0.963894956      -2.308221482      -0.144932830
    C           2.479033019      -0.333742193      -0.144931070
    C          -2.480921346       0.319353125      -0.145037195
    C          -0.185630072      -1.409705216       0.395616702
    C          -1.128043103       0.865614288       0.395566200
    C           1.313649433       0.544107708       0.395618444
    C           0.190568142       1.446652521      -3.737621080
    C           1.157712589      -0.888377395      -3.737569252
    C          -1.348056429      -0.558433631      -3.737622867
    C           1.517122730       1.987754013      -1.693672913
    C          -1.527445040      -1.979828976      -1.693676449
    C          -0.950789285       2.312713008      -1.693725717
    C           0.962956839      -2.307749293      -1.693623163
    C           2.478335966      -0.332955856      -1.693621403
    C          -2.479977929       0.319923454      -1.693727493
    C           0.201029085       1.526345398      -2.249865245
    C          -1.422329435      -0.589163318      -2.249867130
    C           1.344882143       0.556939602      -4.258021116
    C          -1.154689543       0.886067341      -4.258074597
    N           0.000000000       0.000000000       0.000000000
    H          -0.321939132      -2.445621465      -3.907906098
    H          -0.188979789      -1.436095160      -5.328003259
    H           2.698719091       1.117705820      -3.269544158
    H           3.611213912       1.495683130      -1.833101349
    H          -3.098950983       2.378012179      -1.826663111
    H          -2.322827898       1.782448387      -3.269518860
    H          -0.381259239      -2.896023075      -3.269547736
    H          -0.510229201      -3.875249239      -1.833106137
    H           0.722526243       2.612850133       0.207580903
    H           2.457667295       2.361684964       0.203028414
    H          -1.653933164      -2.982378165       0.207838542
    H          -2.332801086      -1.365924619       0.202756439
    H          -1.755859262       2.923536761       0.207753263
    H          -0.016534166       2.703226506       0.202744313
    H           1.901524332      -1.932149702       0.207668036
    H           0.816438304      -3.309242266       0.203076319
    H           3.409779954       0.058850220       0.207894595
    H           2.349323083      -1.337293286       0.202847522
    H          -2.624063035      -0.680691627       0.207561960
    H          -3.274117784       0.947565912       0.202936361
    H          -0.187282320      -1.422075574       1.465539389
    H          -1.137975233       0.873234505       1.465488443
    H           1.325169603       0.548903222       1.465541145
    H           0.321764729       2.442966335      -4.105092960
    H           1.954963526      -1.500155154      -4.105005440
    H          -2.276481901      -0.942985270      -4.105095978
    H           1.656632486       2.990603583      -2.039696158
    H          -2.460032397      -2.374101951      -2.039700939
    H          -0.825931592       3.317491868      -2.039749275
    H           1.761710419      -2.929994257      -2.039610610
    H           3.286086394      -0.943476418      -2.039608839
    H          -3.418220499      -0.060695826      -2.039752286
    H           1.338491562       0.554268705      -5.328007256
    H           2.278950503       0.943828078      -3.907683685
    H          -1.956837199       1.501602665      -3.907993709
    H          -1.148980807       0.881687986      -5.328054703
