64
Generated from the PW2PY python module
    C          -0.349579761       1.499395693      -2.249810563
    C           1.062371806       0.995104242      -4.258022898
    C          -2.778397513       0.842929507      -2.199696892
    C           0.659225506      -2.827536225      -2.199803571
    C           2.119129142       1.984762575      -2.199700448
    C          -2.434404810      -0.575014406      -0.144982621
    C           2.437697319       0.560891065      -0.144986159
    C          -0.733105511      -2.391548898      -0.145035417
    C           0.719219330       2.395767821      -0.144932830
    C          -1.704594632       1.830668103      -0.144931070
    C           1.715182656      -1.820743144      -0.145037195
    C           1.037801508       0.971954397       0.395616702
    C           0.322849220      -1.384751862       0.395566200
    C          -1.360643019       0.412769432       0.395618444
    C          -1.065057810      -0.997382372      -3.737621080
    C          -0.331343280       1.421170105      -3.737569252
    C           1.396328257      -0.423522911      -3.737622867
    C          -2.433769526      -0.574102160      -1.693672913
    C           2.436721188       0.561427619      -1.693676449
    C          -0.732199544      -2.390925668      -1.693725717
    C           0.719644950       2.394807679      -1.693623163
    C          -1.704554650       1.829618050      -1.693621403
    C           1.714091572      -1.820585517      -1.693727493
    C          -1.123700854      -1.052349446      -2.249865245
    C           1.473236773      -0.446886837      -2.249867130
    C          -1.392926698       0.422664065      -4.258021116
    C           0.330471917      -1.417466609      -4.258074597
    N           0.000000000       0.000000000       0.000000000
    H           1.800348147       1.686254934      -3.907906098
    H           1.057132477       0.990229062      -5.328003259
    H          -2.795203134       0.848050984      -3.269544158
    H          -3.740357436       1.134751159      -1.833101349
    H           0.886926549      -3.804181964      -1.826663111
    H           0.664796961      -2.851437654      -3.269518860
    H           2.131934967       1.996787810      -3.269547736
    H           2.852844598       2.671922192      -1.833106137
    H          -2.216094916      -1.561394670       0.207580903
    H          -3.398039591      -0.266479538       0.203028414
    H           3.170508304       1.256165406       0.207838542
    H           2.669813030      -0.424039333       0.202756439
    H          -0.497374523      -3.373829801       0.207753263
    H          -1.702127658      -2.100111511       0.202744313
    H          -0.244155391       2.699886182       0.207668036
    H           1.468245725       3.076021841       0.203076319
    H          -2.673129732       2.117649668       0.207894595
    H          -0.967681422       2.524136475       0.202847522
    H           2.460254353      -1.138506224       0.207561960
    H           1.929797822      -2.809556689       0.202936361
    H           1.046926385       0.980468639       1.465539389
    H           0.325692646      -1.396943246       1.465488443
    H          -1.372590473       0.416370768       1.465541145
    H          -1.798528936      -1.684313131      -4.105092960
    H          -0.559518886       2.399851348      -4.105005440
    H           2.357967829      -0.715247358      -4.105095978
    H          -3.177813058      -1.260811308      -2.039696158
    H           3.407745092       0.274577594      -2.039700939
    H          -1.466140807      -3.088421348      -2.039749275
    H           0.496948110       3.382533447      -2.039610610
    H          -1.941644030       2.813988273      -2.039608839
    H           2.680825202      -2.121577621      -2.039752286
    H          -1.386292313       0.420674555      -5.328007256
    H          -2.360410756       0.716161923      -3.907683685
    H           0.560048964      -2.402158934      -3.907993709
    H           0.328837237      -1.410459737      -5.328054703
