64
Generated from the PW2PY python module
    C           0.813042643       1.307423082      -2.249810563
    C           1.454855265      -0.047565351      -4.258022898
    C          -1.368582552       2.560664893      -2.199696892
    C          -1.533227213      -2.465512864      -2.199803571
    C           2.901889662      -0.095011511      -2.199700448
    C          -2.127980735       1.314787564      -0.144982621
    C           2.120322181      -1.327102429      -0.144986159
    C          -2.209464322      -1.172696565      -0.145035417
    C           2.202628538       1.185498807      -0.144932830
    C           0.089147406       2.499808253      -0.144931070
    C          -0.074642537      -2.500277111      -0.145037195
    C           1.421112029      -0.046560939       0.395616702
    C          -0.750878559      -1.207456304       0.395566200
    C          -0.670247841       1.253991970       0.395618444
    C          -1.458365438       0.047853761      -3.737621080
    C           0.770623938       1.239214099      -3.737569252
    C           0.687877257      -1.286829101      -3.737622867
    C          -2.126886466       1.314983405      -1.693672913
    C           2.120011353      -1.326032800      -1.693676449
    C          -2.208383016      -1.172896490      -1.693725717
    C           2.202250573       1.184518925      -1.693623163
    C           0.088433179       2.499037482      -1.693621403
    C          -0.075302590      -2.499394139      -1.693727493
    C          -1.538699923       0.050453064      -2.249865245
    C           0.725739000      -1.357732426      -2.249867130
    C          -0.686079288       1.283816540      -4.258021116
    C          -0.768621318      -1.235979185      -4.258074597
    N           0.000000000       0.000000000       0.000000000
    H           2.465400682      -0.080676084      -3.907906098
    H           1.447703228      -0.047307859      -5.328003259
    H          -1.376844489       2.576169693      -3.269544158
    H          -1.842441868       3.447222347      -1.833101349
    H          -2.062811087      -3.317114641      -1.826663111
    H          -1.546188462      -2.486353341      -3.269518860
    H           2.919447873      -0.095563471      -3.269547736
    H           3.906600062      -0.127931460      -1.833106137
    H          -2.671088502       0.462942984       0.207580903
    H          -2.591206325       2.214347349       0.203028414
    H           3.130130998      -1.353644844       0.207838542
    H           1.588001810      -2.187683986       0.202756439
    H          -2.737354828      -2.033961033       0.207753263
    H          -2.688589100      -0.281417081       0.202744313
    H           1.736463895       2.081751761       0.207668036
    H           3.213282412       1.136869394       0.203076319
    H          -0.392783720       3.387592601       0.207894595
    H           1.100579923       2.469088114       0.202847522
    H           0.934617065      -2.544708007       0.207561960
    H          -0.622083461      -3.351229713       0.202936361
    H           1.433584769      -0.046992723       1.465539389
    H          -0.757488564      -1.218087520       1.465488443
    H          -0.676149438       1.264986625       1.465541145
    H          -2.462741243       0.080762770      -4.105092960
    H           1.301311563       2.092590761      -4.105005440
    H           1.161578784      -2.173091299      -4.105095978
    H          -3.138581388       1.355524937      -2.039696158
    H           2.603795342      -2.215483984      -2.039700939
    H          -3.220561786      -1.147125572      -2.039749275
    H           2.743207716       2.040416960      -2.039610610
    H           0.616840529       3.362739851      -2.039608839
    H           0.395447757      -3.395811602      -2.039752286
    H          -0.682794865       1.277718526      -5.328007256
    H          -1.162659499       2.175465404      -3.907683685
    H          -1.302568451      -2.094597292      -3.907993709
    H          -0.764822604      -1.229868685      -5.328054703
